Circuit: * C:\users\ioe\Documents\LTspiceXVII\EEG\main.asc

WARNING: Less than two connections to node NC_01.  This node is used by V3.
WARNING: Less than two connections to node NC_02.  This node is used by V4.
WARNING: Less than two connections to node NC_03.  This node is used by V5.
WARNING: Less than two connections to node NC_04.  This node is used by V6.
Early termination of direct N-R iteration.
Direct Newton iteration failed to find .op point.  (Use ".option noopiter" to skip.)
Starting Gmin stepping
Increasing initial diagonal Gmin to 100
Gmin = 100
vernier = 0.5
vernier = 0.25
Gmin = 34.2672
vernier = 0.125
vernier = 0.0625
vernier = 0.03125
vernier = 0.015625
Gmin = 35.4324
vernier = 0.0078125
vernier = 0.00390625
vernier = 0.00195313
vernier = 0.000976563
Gmin = 35.3547
vernier = 0.000488281
Gmin = 0
Gmin stepping failed

Starting source stepping with srcstepmethod=0
Source Step = 3.0303%
Source Step = 33.3333%
Source Step = 63.6364%
Source Step = 93.9394%
Source stepping succeeded in finding the operating point.


Date: Fri Jan 02 18:25:38 2026
Total elapsed time: 0.663 seconds.

tnom = 27
temp = 27
method = trap
totiter = 1921
traniter = 0
tranpoints = 0
accept = 0
rejected = 0
matrix size = 200
fillins = 829
solver = Normal
Matrix Compiler1:    4635 opcodes
Matrix Compiler2: 32.56 KB object code size  8.4/9.3/[2.1]

